tests/data/state_estimation/link-after-trafo-ilse/asym_output.json
{
  "version": "1.0",
  "type": "asym_output",
  "is_batch": false,
  "attributes": {},
  "data": {
    "node": [
      {"id": 30, "energized": 1, "u_pu": [1.0000000100640514, 1.0000000100640514, 1.0000000100640516], "u": [230.9401100000434, 230.9401100000434, 230.94011000004346], "u_angle": [-3.6070509660964574e-05, -2.0944311729028566, 2.0943590318835348], "p": [0, 0, 0], "q": [0, 0, 0]},
      {"id": 90, "energized": 1, "u_pu": [1.0000101195612181, 1.0000101195612181, 1.0000101195612183], "u": [5773.5611172101908, 5773.5611172101908, 5773.5611172101926], "u_angle": [-6.0184701719327681e-36, -2.0943951023931957, 2.0943951023931957], "p": [393.34080301016564, 393.34080301100619, 393.34080300855356], "q": [0.0076549888357906022, 0.007654989577034586, 0.0076549887898328924]},
      {"id": 112, "energized": 1, "u_pu": [1.0000000100640514, 1.0000000100640514, 1.0000000100640516], "u": [230.9401100000434, 230.9401100000434, 230.94011000004346], "u_angle": [-3.6070509660945966e-05, -2.0944311729028566, 2.0943590318835348], "p": [0, 0, 0], "q": [0, 0, 0]}
    ],
    "source": [
      {"id": 207, "energized": 1, "p": [393.34080301016564, 393.34080301100619, 393.34080300855356], "q": [0.0076549888357906022, 0.007654989577034586, 0.0076549887898328924], "i": [0.068127936138436207, 0.068127936138581785, 0.068127936138157], "s": [393.34080308465428, 393.34080308549483, 393.3408030830422], "pf": [0.99999999981062571, 0.99999999981062571, 0.99999999981062571]}
    ],
    "transformer": [
      {"id": 208, "energized": 1, "loading": 0.0018730514432590336, "p_from": [393.34080301016564, 393.34080301100619, 393.34080300855356], "q_from": [0.0076549888357906022, 0.0076549895770311053, 0.0076549887898481796], "i_from": [0.068127936138436207, 0.068127936138581785, 0.068127936138156986], "s_from": [393.34080308465428, 393.34080308549483, 393.3408030830422], "p_to": [-0.0014972693907211341, -0.0014972701290541671, -0.0014972688708105152], "q_to": [-0.00056098995077853936, -0.00056099087513660157, -0.00056099031754126621], "i_to": [6.9234997948205443e-06, 6.9235041929913596e-06, 6.9234982438638783e-06], "s_to": [0.0015989138042011345, 0.0015989148199151862, 0.0015989134460230319]}
    ],
    "link": [
      {"id": 229, "energized": 1, "loading": 0, "p_from": [0.0049670537780399648, 0, 0], "q_from": [-1.7916416136502353e-07, 0, 0], "i_from": [2.1507973566264874e-05, 0, 0], "s_from": [0.004967053781271236, 0, 0], "p_to": [-0.0049670537780399648, 0, 0], "q_to": [1.791641613649311e-07, 0, 0], "i_to": [2.1507973566264874e-05, 0, 0], "s_to": [0.004967053781271236, 0, 0]}
    ],
    "asym_voltage_sensor": [
      {"id": 329, "energized": 1, "u_residual": [-4.3382038204813206e-11, -4.3382038204813206e-11, -4.3433317209783434e-11]}
    ],
    "asym_power_sensor": [
      {"id": 466, "energized": 1, "p_residual": [0.0014972693907211341, 0.0014972701290541671, 0.0014972688708105152], "q_residual": [0.00056098995077853936, 0.00056099087513660157, 0.00056099031754126621]}
    ]
  }
}